
     RDKit          3D

 18 19  0  0  0  0  0  0  0  0999 V2000
    0.0530   -1.0646   -0.3077 C   0  0  0  0  0  0  0  0  0  0  0  0
   -0.0460   -0.1056    0.5913 C   0  0  0  0  0  0  0  0  0  0  0  0
    0.9670    4.2384    2.6733 O   0  0  0  0  0  0  0  0  0  0  0  0
    3.3310    4.3274    1.3093 O   0  0  0  0  0  0  0  0  0  0  0  0
    0.7980    1.0724    0.8043 C   0  0  0  0  0  0  0  0  0  0  0  0
    0.4440    2.1154    1.6683 C   0  0  0  0  0  0  0  0  0  0  0  0
    1.2810    3.2004    1.8423 C   0  0  0  0  0  0  0  0  0  0  0  0
    2.4900    3.2594    1.1503 C   0  0  0  0  0  0  0  0  0  0  0  0
    2.8540    2.2404    0.3023 C   0  0  0  0  0  0  0  0  0  0  0  0
    2.0100    1.1574    0.1373 C   0  0  0  0  0  0  0  0  0  0  0  0
   -2.3810   -3.2406   -2.1127 C   0  0  0  0  0  0  0  0  0  0  0  0
   -3.0060   -3.9216   -1.0827 C   0  0  0  0  0  0  0  0  0  0  0  0
   -3.2650   -4.3426    1.2323 O   0  0  0  0  0  0  0  0  0  0  0  0
   -2.6310   -3.6626    0.2233 C   0  0  0  0  0  0  0  0  0  0  0  0
   -2.7350   -3.4666   -3.4167 O   0  0  0  0  0  0  0  0  0  0  0  0
   -1.6370   -2.7356    0.5083 C   0  0  0  0  0  0  0  0  0  0  0  0
   -1.0070   -2.0546   -0.5287 C   0  0  0  0  0  0  0  0  0  0  0  0
   -1.3910   -2.3106   -1.8417 C   0  0  0  0  0  0  0  0  0  0  0  0
  2  1  2  3
  5  2  1  0
  6  5  2  0
  7  6  1  0
  7  3  1  0
  8  7  2  0
  8  4  1  0
  9  8  1  0
 10  9  2  0
 10  5  1  0
 12 11  2  0
 14 12  1  0
 14 13  1  0
 15 11  1  0
 16 14  2  0
 17 16  1  0
 17  1  1  0
 18 17  2  0
 18 11  1  0
M  END
$$$$
